<?xml version="1.0" encoding="UTF-8"?>

<!-- generated on 2025-09-29 15:40:59.828011 by Eclipse SUMO randomTrips.py v1_24_0+1045-d7bbd3d1d18
<configuration>
    <net-file value="/Users/vinayakprakash/Documents/V2X-COMMUNICATION/src/simulation/sumo_data/map.net.xml"/>
    <output-trip-file value="/Users/vinayakprakash/Documents/V2X-COMMUNICATION/src/simulation/sumo_data/map.rou.xml"/>
    <end value="1000.0"/>
    <period value="2.0"/>
</configuration>
-->

<!-- generated on 2025-09-29T15:40:59.549426+05:30 by Eclipse SUMO duarouter v1_24_0+1045-d7bbd3d1d18
<duarouterConfiguration xmlns:xsi="http://www.w3.org/2001/XMLSchema-instance" xsi:noNamespaceSchemaLocation="http://sumo.dlr.de/xsd/duarouterConfiguration.xsd">

    <input>
        <net-file value="/Users/vinayakprakash/Documents/V2X-COMMUNICATION/src/simulation/sumo_data/map.net.xml"/>
        <route-files value="/Users/vinayakprakash/Documents/V2X-COMMUNICATION/src/simulation/sumo_data/map.rou.xml"/>
    </input>

    <output>
        <output-file value="routes.rou.xml"/>
        <alternatives-output value="NUL"/>
    </output>

    <time>
        <begin value="0"/>
        <end value="1000.0"/>
    </time>

    <report>
        <no-warnings value="true"/>
        <ignore-errors value="true"/>
        <no-step-log value="true"/>
    </report>

</duarouterConfiguration>
-->

<routes xmlns:xsi="http://www.w3.org/2001/XMLSchema-instance" xsi:noNamespaceSchemaLocation="http://sumo.dlr.de/xsd/routes_file.xsd">
    <vehicle id="0" depart="0.00">
        <route edges="680782188#7 -680782188#7 -680782188#6 -680782188#5 -680782188#4 -680782188#3 -680782188#2 -680782188#1 -680782188#0 -27695602 46151426#4 46151426#5 46151426#6 46151426#7 46151426#8 46151426#9 46151426#10 46151426#11 46151215#0 46151215#1 46151215#2 261674289 261674288 273211078#0 273211078#1 273211078#2 273211078#3 273211078#4 273211078#5 273211078#6 273211078#7 273211078#8 273211078#9 273211078#10 -199152245 -335539639#6 -335539639#5 -335539639#4 -335539639#3 -335539639#2 -335539639#1 -335539639#0 -46151425#2 -46151425#1 -46151425#0 97672283#0 97672283#1 97672283#2 97672283#3 -178899417#7"/>
    </vehicle>
    <vehicle id="1" depart="2.00">
        <route edges="157292833#13 157292833#14 157292833#15 157292833#16 157292833#17 680760295 680760292#0 680760292#1 680760292#2 680760292#3 680760292#4 680760292#5 680760292#6 54786433#0 54786433#1 54786433#2 54786433#3 1085022602#0 1085022602#1 1085022610#0 1085022610#1 1245764631#0 1245764631#1"/>
    </vehicle>
    <vehicle id="2" depart="4.00">
        <route edges="95274308#1 95274308#2 95274308#3 95274308#4 95274308#5 95274308#6 95274308#7 95274308#8 680782189#0 680782189#1 680782189#2 680782189#3 680782189#4 680782189#5 157292893 157296623#0 157296623#1 157296623#2 157296623#3 157296623#4 157296623#5 157296623#6 157296623#7 1245989824#1 69963039#0 92223190#0 92223190#1 92223190#2 92223190#3 92223190#4 92223190#5 92223190#6 74314548#0 74314548#1 -74314564#3 -74314564#2 74314564#2 74314564#3"/>
    </vehicle>
    <vehicle id="3" depart="6.00">
        <route edges="97671422#0 97671422#1 97671422#2 1245764640#2 1245764640#3 1245764640#4 1031976628 1245764631#0 1245764631#1 1245764631#2 1245764631#3 1245764631#4 1245989818#0 1245989818#1 378279500 378279492 92223210 92223204 760779957 968060911 968060908 968060910#0 968060910#1 968060910#2 968060910#3 968060910#4 968060910#5 968060910#6 968060910#7 968060910#8 968060910#9 968060910#10 1070720648 1070720650 1070720649 1070720646#0 1070720646#1 1070720646#2 1070720646#3 690198421 690198419#0 690198419#1 690198420#0 690198420#1 690198420#2 690198420#3 922026090#0 922026090#1 922026090#2 922026090#3 922026090#4 922026090#5 922026090#6 922026090#7 342481199#0 342481199#1 342481199#2 342481199#3 342481199#4 942581087 319195388#0 319195388#1 319195388#2 680788592#5 680788592#6 680788592#7 27695604#1 27695604#2 539237085#5 539237085#6 539237085#7 539237085#8 539237085#9 682718132 942581084 459563825 1158715735 459561639#0 203301448#0 203301448#1 203301448#2 660988514#3 -660988514#3"/>
    </vehicle>
    <vehicle id="4" depart="8.00">
        <route edges="273211078#5 97671440#0 97671440#1 97685751#3 97685751#4 -261674288 -261674289 -46151215#2 -46151215#1 -46151215#0 680760295 680760292#0 680760292#1 680760292#2 680760292#3 680760292#4 680760292#5 680760292#6 54786433#0 54786433#1 54786433#2 54786433#3 1085022602#0 1085022602#1 1085022610#0 1085022610#1 1085022608 46151427#0 46151427#1 46151427#2 46151427#3 46151427#4 46151427#5 46151427#6 46151427#7 46151427#8 1031976633 1139252860#0 1139252860#1 1316950553#0 1316950553#1 1316950553#2 1031963664#0 1031963664#1 1031963664#2 98247389#0 98247389#1 199152184 1069975921 1279121054#0 1279121054#1 1279121054#2 1279121054#3 1279121054#4 203572465 387312966 676291216#0 676291216#1 1105155928 1105155927 1105155925#0 1105155925#1 1105155925#2 387312965#0 387312965#1 387312965#2 387312965#3 387312965#4 387312965#5 178989940#0 178989940#1 178989940#2 178989940#3 178989940#4 178989940#5 178989940#6 178989940#7 59266960#0 59266960#1 -216895901#1 -216895901#0"/>
    </vehicle>
    <vehicle id="5" depart="10.00">
        <route edges="1177591510#6 538982926#6 538982926#7 538982926#8 1105285859#0 1105285859#1 1105285859#2 1105285859#3 1105285859#4 1105285853#0 1105285853#1 1105285853#2 1279121054#0 1279121054#1 1279121054#2 1279121054#3 1279121054#4 203572465 387312966 676291216#0 676291216#1 1105155928 1105155927 1105155925#0 1105155925#1 1105155925#2 387312965#0 387312965#1 387312965#2 387312965#3 387312965#4 387312965#5 178989940#0 178989940#1 178989940#2 178989940#3 178989940#4 178989940#5 178989940#6 178989940#7 59266960#0 59266960#1 59266960#2 39520757#0 39520757#1 39520757#2"/>
    </vehicle>
    <vehicle id="6" depart="12.00">
        <route edges="-196380138#1 -196380138#0 -40969570#2 -40969570#1 -40969570#0 196380147#0 196380147#1 196380146 196380151 1105524769#0 1105524769#1 1105524769#2 1105524769#3 1105524769#4 884082445#0 884082445#1 884082445#2 884082445#3 884082446#0 884082446#1 286703470#0 286703470#1 286703470#2 286703470#3 958705067 958539575 -59262030#1 -59262030#0 286703474#0 286703474#1 286703474#2 286703474#3 286703474#4 389357542#0 389357542#1 389357542#2 389357542#3 389357542#4 257233098#0 257233098#1 257233098#2 257233098#3 257233098#4 257233098#5 257233098#6 257233098#7 257233098#8 257233098#9 254711096#0 254711096#1 254711096#2 254711096#3 1105155920 1105155924#0"/>
    </vehicle>
    <vehicle id="7" depart="14.00">
        <route edges="689924124#0 1031963665#0 1031963665#1 1031963665#2 1031963665#3 1031963665#4 1031963665#5 1031963665#6 1031976626#0 1031976626#1 1031976626#2 1031976626#3 1031976626#4 1031976626#5 1031976626#6 1031976626#7 1085022609#0 1085022609#1 1085022603#0 1085022603#1 46151426#0 46151426#1 46151426#2 46151426#3 46151426#4 46151426#5 46151426#6 46151426#7 46151426#8 46151426#9"/>
    </vehicle>
    <vehicle id="8" depart="16.00">
        <route edges="1189280544#3 1189280544#4 1189280544#5 39520757#3 39520757#4 39520757#5 39520757#6 39520757#7 39520757#8 39520757#9 39520757#10 265068939#0 265068939#1 265068939#2 265068939#3 265068939#4 265068939#5 265068939#6 263802549#0 263802549#1 319195387#9 319195387#10 -922026089 -690198420#3 -690198420#2 -690198420#1 -690198420#0 -690198419#1 -690198419#0 -690198421 -1070720646#3 -1070720646#2 -1070720646#1 -1070720646#0 -1070720649 1070720653#0 1070720653#1 1070720653#2 1070720653#3 1070720653#4 1070720653#5 1070720653#6 1070720653#7 538982926#0 538982926#1 538982926#2 538982926#3 538982926#4 538982926#5 538982926#6"/>
    </vehicle>
    <vehicle id="9" depart="18.00">
        <route edges="95396844#2 95396844#3 95396844#4 95396844#5 95396844#6 95396844#7 95396844#8 95396844#9 667863954#2 667863954#3 667863954#4 -368086833 -492041982#3 -492041982#2 -492041982#1 -492041982#0 -667863963 -652152435 -652152437 -60659454#6 -60659454#5 -60659454#4 -60659454#3 -60659454#2 -60659454#1 -60659454#0 1031963662 179260411#0 179260411#1 179260411#2 179260411#3 179260411#4 179260411#5 179260411#6 179260411#7 179260411#8 179260411#9 179260411#10 179260411#11 179260411#12 179260411#13 179260411#14 59262028 196380142 328531824 163198815#0 163198815#1 163198815#2 -1133614450#2 -1133614450#1"/>
    </vehicle>
    <vehicle id="10" depart="20.00">
        <route edges="95396840#1 95396843#6 95396843#7 95396843#8 95396843#9 438405583#5 -95396776#1 -95396776#0 450523569 95282584#0 95282584#1 95282584#2 95282584#3 95282584#4 273211103#3 95282557 95282572#0 95282572#1 95282572#2 95282572#3 95282572#4 95282572#5 95282572#6 95282572#7 95282572#8 95282572#9 95282572#10 95282572#11 95282572#12 -261674288 -261674289 -46151215#2 -46151215#1 -46151215#0 680760295 680760292#0 680760292#1 680760292#2 680760292#3 680760292#4 680760292#5 680760292#6 54786433#0 54786433#1 54786433#2 54786433#3 1085022602#0 1085022602#1 1085022610#0 1085022610#1 1245764631#0 1245764631#1 1245764631#2 1245764631#3 1245764631#4 1245989818#0 1245989818#1 378279500 378279492 92223210 92223204 760779957 968060911 968060908 968060910#0 968060910#1 968060910#2 968060910#3 968060910#4 968060910#5 968060910#6 968060910#7 968060910#8 968060910#9 968060910#10 1070720648 1070720650 1070720649 1070720646#0 1070720646#1 1070720646#2 1070720646#3 690198421 690198419#0 690198419#1 690198420#0 690198420#1 690198420#2 690198420#3 922026090#0 922026090#1 922026090#2 922026090#3 922026090#4 240392373#0 240392373#1 240392373#2 669790925 39169198 669790924#0 39169192#3 39169192#4 39169192#5 39168852#2 39168852#3 39168852#4 39168852#5 39168852#6 39168852#7 1419992142#0 1419992142#1 1419992142#2 932390018 257233104 932390016#0 932390016#1 932390016#2 883261851#0 883261851#1 883261851#2 -734696705#2 -734696705#1 -734696705#0 734696705#0 734696705#1 734696705#2 -883261843 883261847#0"/>
    </vehicle>
    <vehicle id="11" depart="22.00">
        <route edges="203035355 97671411#0 97671411#1 97671411#2 97671411#3 97671411#4 97671411#5 97671411#6 97671411#7 97671411#8 97671411#9 97671411#10 97671411#11 -60659454#6 -60659454#5 -60659454#4 -60659454#3 -60659454#2 -60659454#1 -60659454#0 1031963662 24061029#0 24061029#1 24061029#2 24061029#3 24061029#4 24061029#5 24061029#6 24061029#7 24061029#8 24061029#9 24061029#10 24061029#11 24061029#12 24061029#13 24061029#14 24061029#15 24061029#16 46151426#4 46151426#5 46151426#6 46151426#7 46151426#8 46151426#9 46151426#10 46151426#11 46151215#0 46151215#1 46151215#2 261674289 261674288 273211078#0 273211078#1 273211078#2 273211078#3 273211078#4 273211078#5 273211078#6 273211078#7 273211078#8 273211078#9 273211078#10 -199152245 -335539639#6 -335539639#5 -335539639#4 -335539639#3 -335539639#2 -335539639#1 -335539639#0 -46151425#2 -46151425#1 -97672292#3 -97672292#2 -97672292#1"/>
    </vehicle>
    <vehicle id="12" depart="24.00">
        <route edges="97672291#0 97672291#1 -97672291#1 -97672291#0 335539639#3 335539639#4 335539639#5 335539639#6 178899418#0 178899418#1 178899418#2 178899418#3 157292926 1028241267 1422762652#0 1422762652#1 1422762652#2 1422762652#3 1422762652#4 -23488887#0 198900392#5 198900392#6 198900392#7"/>
    </vehicle>
    <vehicle id="13" depart="26.00">
        <route edges="-680782188#12 -680782188#11 680782188#11 680782188#12 680782188#13 680782188#14 680782188#15 680782188#16 680782188#17 680782188#18 680782188#19 680782188#20 680782188#21 680782188#22 680782188#23 680782188#24 680782188#25 680782188#26 680782188#27 680782188#28 -680782188#28 -680782188#27 -680782188#26"/>
    </vehicle>
    <vehicle id="14" depart="28.00">
        <route edges="97671363#1 92223199#1 92223199#2 92223199#3 1031976631 1031976629#0 1031976629#1 1031976629#2 1031976629#3 1031976629#4 1031976629#5 1031976629#6 1031976629#7 1031976629#8 1031976629#9 23770583#0 23770583#1 23770583#2 23770583#3 23770583#4 23770583#5 23770583#6 387312966 676291216#0 676291216#1 1105155928 1105155927 1105155925#0 1105155925#1 1105155925#2 387312965#0 387312965#1 387312965#2 387312965#3 387312965#4 387312965#5 178989940#0 178989940#1 178989940#2 178989940#3 178989940#4 178989940#5 178989940#6 178989940#7 59266960#0 59266960#1 59266960#2"/>
    </vehicle>
    <vehicle id="15" depart="30.00">
        <route edges="95396843#2 95396825#6 95396844#7 95396844#8 95396844#9 667863954#2 667863954#3 667863954#4 -368086833 -492041982#3 -492041982#2 -492041982#1 -492041982#0 -667863963 -652152435 -652152437 -60659454#6 -60659454#5 -60659454#4 -60659454#3 -60659454#2 -60659454#1 -60659454#0 1031963662 24061029#0 24061029#1 24061029#2 24061029#3 24061029#4 24061029#5 24061029#6 24061029#7 24061029#8 24061029#9 24061029#10 24061029#11 24061029#12 24061029#13 24061029#14 24061029#15 24061029#16 27695602 54786433#0 54786433#1 54786433#2 54786433#3 1085022602#0 1085022602#1 1085022610#0 1085022610#1 1245764631#0 1245764631#1 1245764631#2 1245764631#3 1245764631#4 1245989818#0 1245989818#1 378279500 378279492 92223210 92223204 760779957 968060911 968060908 968060910#0 968060910#1 968060910#2 968060910#3 968060910#4 968060910#5 968060910#6 968060910#7 968060910#8 968060910#9 968060910#10 1070720648 1070720650 1070720649 1070720646#0 1070720646#1 1070720646#2 1070720646#3 690198421 690198419#0 690198419#1 690198420#0 690198420#1 690198420#2 690198420#3 922026090#0 922026090#1 922026090#2 922026090#3 922026090#4 240392373#0 240392373#1 240392373#2 669790925 39169198 669790924#0 39169192#3 39169192#4 39169192#5 39168852#2 39168852#3 39168852#4 39168852#5 39168852#6 39168852#7 1419992142#0 1419992142#1 1419992142#2 932390018"/>
    </vehicle>
    <vehicle id="16" depart="32.00">
        <route edges="240392370#5 -46869644 1026056857#8 1026056857#9 1026056857#10 1026056857#11 1026056857#12 1026056857#13 1026056857#14 1026056857#15 -1070720650 -1070720648 -968060910#10 -968060910#9 -968060910#8 -968060910#7 -968060910#6 -968060910#5 -968060910#4 -968060910#3 -968060910#2 -968060910#1 -968060910#0 23489017#0 23489017#1 23489017#2 23489017#3 23489017#4 23489017#5 1245764633#0 1245764633#1 1245764633#2 1245764633#3 1245764633#4 1245764633#5 1245764633#6 1245764632#0 1245764632#1 1085022607#0 1085022607#1 1085022607#2 1085022607#3 1085022607#4 1085022606 1031976626#7 1085022609#0 1085022609#1 1085022603#0 1085022603#1 46151426#0 46151426#1 46151426#2 46151426#3 46151426#4 46151426#5 46151426#6 46151426#7 46151426#8 46151426#9 46151426#10 46151426#11 46151215#0 46151215#1 46151215#2 261674289 261674288 -95282572#12 -95282572#11 -95282572#10 -95282572#9 -95282572#8 -95282572#7 -95282572#6 -95282572#5 -95282572#4 46151432#5 46151432#6 46151432#7"/>
    </vehicle>
    <vehicle id="17" depart="34.00">
        <route edges="97671338#1 97671338#2 46151426#6 46151426#7 46151426#8 46151426#9 46151426#10 273211091#1 273211091#2 273211091#3 273211091#4 273211091#5 273211091#6 273211091#7 273211091#8 273211091#9 273211091#10 273211091#11 273211091#12 273211091#13 273211091#14 273211091#15 273211091#16 273211091#17 31046486#0 31046486#1 31046486#2 31046486#3 31046486#4 157292816 667863953#0 667863953#1 667863953#2 667863953#3 -31046405#8 -31046405#7 -31046405#6 -31046405#5 -31046405#4 -31046405#3 -31046405#2 -31046405#1 -31046405#0 -667863958#2 -667863958#1 -667863958#0 -265176189#2 -265176189#1 -265176189#0 667863956#0"/>
    </vehicle>
    <vehicle id="18" depart="36.00">
        <route edges="97671386#5 97671386#6 97671424#9 97671424#10 54786433#2 54786433#3 1085022602#0 1085022602#1 1085022604 1085022603#0 1085022603#1 46151426#0 46151426#1 46151426#2 46151426#3 -24061029#16 -24061029#15 -24061029#14 -24061029#13 -24061029#12 -24061029#11 -24061029#10 -24061029#9 -24061029#8 -24061029#7 -24061029#6 -24061029#5 -24061029#4 -24061029#3 -24061029#2 -24061029#1 -24061029#0 -1031963662 60659454#0 60659454#1 60659454#2 60659454#3 60659454#4 60659454#5 60659454#6 652152437 652152435 667863963 492041982#0 492041982#1 492041982#2"/>
    </vehicle>
    <vehicle id="19" depart="38.00">
        <route edges="884274229#0 884274229#1 884274229#2 884274229#3 884274229#4 884274229#5 884274229#6 884274229#7 1026056857#0 1026056857#1 1026056857#2 1026056857#3 342481201#10 342481201#11 342481201#12 342481201#13 342481201#14 342481201#15 342481201#16 342481201#17 4848928#5 4848928#6 4848928#7 4848928#8 4848928#9 4848928#10 4848928#11 1245989819#0 1245989819#1 760779955#0 760779955#1 760779955#2 968060909 760779956 92223189 378279498 92223195 1245764632#0 1245764632#1 1085022607#0 1085022607#1 1085022607#2 1085022607#3 1085022607#4 1085022606 1031976626#7 1085022609#0 1085022609#1 1085022603#0 1085022603#1 46151426#0 46151426#1 46151426#2 46151426#3 46151426#4 46151426#5 46151426#6 46151426#7 46151426#8 46151426#9 46151426#10 46151426#11 46151215#0 46151215#1 46151215#2 261674289 261674288 273211078#0 273211078#1 273211078#2 273211078#3 273211078#4 273211078#5 273211078#6 273211078#7 273211078#8 273211078#9 273211078#10 -273211078#10 -273211078#9 -273211078#8 -273211078#7 -273211078#6"/>
    </vehicle>
    <vehicle id="20" depart="40.00">
        <route edges="1245764637 378279491 92223188 92223209 1245764641 690601665 203035357 203035354#0 203035354#1 1031963656#2 1031963656#3 1031963656#4 1031963656#5 1031963656#6 1031963656#7 1031963656#8 1031963656#9 1031963656#10 72465971#0 72465971#1 72465971#2 72465971#3 72465971#4 72465971#5 72465971#6 667863965#1 667863965#2 667863965#3 269039967 269039960 196380147#0 196380147#1 163198807#0"/>
    </vehicle>
    <vehicle id="21" depart="42.00">
        <route edges="-689924124#2 -689924124#1 1031963665#0 1031963665#1 1031963665#2 1031963665#3 1031963665#4 1031963665#5 1031963665#6 1031976626#0 1031976626#1 1031976626#2 1031976626#3 1031976626#4 1031976626#5 1031976626#6 1031976626#7 1085022609#0 1085022609#1 1085022603#0 1085022603#1 46151426#0 46151426#1 46151426#2 46151426#3 46151426#4 46151426#5 46151426#6 46151426#7 46151426#8 46151426#9 46151426#10 46151426#11 157292833#18 157292833#19 157292833#20 157292833#21"/>
    </vehicle>
    <vehicle id="22" depart="44.00">
        <route edges="680782188#18 97685747#6 97685747#7 1245147140#0 1245147140#1 1245147140#2 178988162#10 178988162#11 178988162#12 178988162#13 1031976629#0 1245764633#0 1245764633#1 1245764633#2 1245764633#3 1245764633#4 1245764633#5 1245764633#6 1245764632#0 1245764632#1 1085022607#0 1085022607#1 1085022607#2 1085022607#3 1085022607#4 1085022606 1245764636#0 1245764636#1 1245764636#2 1245764636#3 1245764636#4 1245764636#5 1245764635#0 1245764635#1 92223213#0 92223213#1 92223213#2 92223213#3 179260411#8 179260411#9 179260411#10 179260411#11 179260411#12 179260411#13 179260411#14 59262028 196380142 23815145#0 23815145#1 23815145#2 23815145#3"/>
    </vehicle>
    <vehicle id="23" depart="46.00">
        <route edges="240392347#8 240392347#9 1085022605#0 1085022605#1 1085022605#2 1085022605#3 1085022605#4 1085022605#5 178988162#12 178988162#13 1031976629#0 1245764633#0 1245764633#1 1245764633#2 1245764633#3 1245764633#4 1245764633#5 1245764633#6 1245764632#0 1245764632#1 1085022607#0 1085022607#1 1085022607#2 1085022607#3 1085022607#4 1085022606 1245764636#0 1245764636#1 1245764636#2 1245764636#3 1245764636#4 1245764636#5 1245764635#0 1245764635#1 92223213#0 92223213#1 92223213#2 92223213#3 179260411#8 179260411#9 179260411#10 179260411#11 179260411#12 179260411#13 179260411#14 59262028 196380152#0 196380152#1 196380152#2 196380152#3 196380152#4 196380152#5 196380152#6 196380152#7 196380151 1105524769#0 1105524769#1 1105524769#2"/>
    </vehicle>
    <vehicle id="24" depart="48.00">
        <route edges="147801989#2 147801989#3 1419637401#0 1419637401#1 1419637401#2 1419637401#3 -257233098#5 -257233098#4 -257233098#3 -257233098#2 -257233098#1 -257233098#0 -389357542#4 -389357542#3 -389357542#2 -389357542#1 -389357542#0 -286703474#4 -286703474#3 -286703474#2 -286703474#1 -286703474#0 59262030#0 59262030#1 958539574#0 958539574#1 1340584965 287006578#0 287006578#1 287006578#2 287006578#3 287006578#4 974064478 884082444#0 884082444#1 974064482 286703492#0 286703492#1 286703492#2 286703492#3 286703492#4 286703492#5 269150830 163198807#0 163198807#1 163198807#2 273211149#0 273211149#1 273211149#2 273211149#3 328531824 163198815#0 163198815#1 163198815#2 163198815#3 163198815#4 163198815#5 163198815#6 163198815#7 163198815#8 163198815#9 163198815#10 163198815#11 163198815#12 163198815#13 58704022#0 58704022#1 58704022#2 58704022#3 58704022#4 31046486#0 31046486#1 31046486#2 97671474#0 97671474#1"/>
    </vehicle>
    <vehicle id="25" depart="50.00">
        <route edges="689924123#2 689924123#3 689924123#4 689924123#5 689924123#6 689924123#7 689924123#8 689924123#9 196380131#0 196380131#1 196380131#2 196380148#0 196380148#1 196380148#2 196380150#0 196380150#1 196380150#2 196380150#3 40969576#0 40969576#1 40969576#2 1316950555 893375978#0 893375978#1 893375978#2 893375978#3 893375978#4 893375978#5 893375978#6 893375978#7 1139284717 1031976626#0 1031976626#1 1031976626#2 1031976626#3 1031976626#4 1031976626#5 1031976626#6 1031976626#7 1085022609#0 1085022609#1 1085022603#0 1085022603#1 46151426#0 46151426#1 46151426#2 46151426#3 46151426#4 46151426#5 46151426#6 46151426#7 46151426#8 46151426#9 46151426#10 46151426#11 46151215#0 46151215#1 46151215#2 261674289 261674288 273211078#0 273211078#1 273211078#2 273211078#3 273211078#4 273211078#5 273211078#6 273211078#7 273211078#8 273211078#9 273211078#10 -199152245 -335539639#6 -335539639#5 -335539639#4 -335539639#3 -335539639#2 -335539639#1 -335539639#0 -46151425#2 -46151425#1 -46151425#0 46151436#0 243800062#0 243800062#1 611278105"/>
    </vehicle>
    <vehicle id="26" depart="52.00">
        <route edges="1031976626#2 1031976626#3 856631371#24 46151427#3 46151427#4 46151427#5 46151427#6 46151427#7 46151427#8 1031976633 1139252860#0 1139252860#1 1316950553#0 1316950553#1 1316950553#2 1031963664#0 1031963664#1 1031963664#2 98247389#0 98247389#1 199152184 1069975921 1279121054#0 1279121054#1 1279121054#2 1279121054#3 1279121054#4 203572465 676291217#0 676291217#1 676291217#2 676291217#3 676291217#4 676291217#5 922026090#0 922026090#1 922026090#2 922026090#3 922026090#4 240392373#0 240392373#1 240392373#2 669790925 39169198 669790924#0 39169192#3 39169192#4 39169192#5 39168852#2 39168852#3 39168852#4 39168852#5 39168852#6 39168852#7 1419992142#0 1419992142#1 1419992142#2 932390018 257233104 932390016#0 932390016#1"/>
    </vehicle>
    <vehicle id="27" depart="54.00">
        <route edges="1031963656#10 550689174#0 550689174#1 631239774 550689176 631239772#0 631239772#1 631239772#2 690601674 690601675#0 690601675#1 690601675#2 690601675#3 690601675#4 163198815#0 163198815#1 163198815#2 163198815#3 163198815#4 163198815#5 163198815#6 690601667#9 690601667#10 690601667#11 690601667#12 690601667#13 690601667#14 1245764638#0 1245764638#1 1245764639 378279490 92223197 92223187 760779960 1245989818#0 1245989818#1 378279500 378279492 92223210 92223204 760779957 968060912#0 968060912#1 1245989824#0 1245989824#1 69963039#0 69963039#1 69963039#2 69963039#3 -95274352 95274316#0 95274316#1 95274316#2 240392370#0"/>
    </vehicle>
    <vehicle id="28" depart="56.00">
        <route edges="97685747#7 97685747#8 97671343#8 97671343#9 97671343#10 97671343#11 46151739#1 46151739#2 97685749#0 97685749#1 97685749#2 97685749#3 680782189#2"/>
    </vehicle>
    <vehicle id="29" depart="58.00">
        <route edges="46151739#1 -46151739#1 -46151739#0 46151742#0 46151742#1 968060906#0 968060906#1 968060906#2 1085022605#0 1085022605#1 1085022605#2 1085022605#3 1085022605#4 1085022605#5 178988162#12 178988162#13 1031976629#0 1245764633#0 1245764633#1 1245764633#2 1245764633#3 1245764633#4 1245764633#5 1245764633#6 1245764632#0 1245764632#1 1085022607#0 1085022607#1 1085022607#2 1085022607#3 1085022607#4 1085022606 1245764636#0 1245764636#1 1245764636#2 1245764636#3 1300917096#0 1300917096#1 1300917096#2 856631371#17 856631371#18"/>
    </vehicle>
    <vehicle id="30" depart="60.00">
        <route edges="97671355#1 97671355#2 97671486#2 97671396#1 97671396#2 -24061029#13 -24061029#12 -24061029#11 -24061029#10 -24061029#9 -24061029#8 -24061029#7 -24061029#6 -24061029#5 -24061029#4 -24061029#3 -24061029#2 -24061029#1 -24061029#0 -1031963662 60659454#0 60659454#1 60659454#2 60659454#3 60659454#4 60659454#5 60659454#6 652152437 652152435 667863963 157293040#0 157293040#1 157293040#2 157293040#3 -667863960#4 -667863960#3 95282551#0"/>
    </vehicle>
    <vehicle id="31" depart="62.00">
        <route edges="1245764640#1 1245764640#2 -378279504 1245764636#2 1245764636#3 1245764636#4 1245764636#5 1245764635#0 1245764635#1 92223213#0 92223213#1 92223213#2 92223213#3 179260411#8 179260411#9 179260411#10 179260411#11 179260411#12 179260411#13 179260411#14 59262028 196380152#0 196380152#1 196380152#2 196380152#3 196380152#4 196380152#5 196380152#6 196380152#7 196380151 1105524769#0 1105524769#1 1105524769#2 1105524769#3 1105524769#4 884082445#0 884082445#1 884082445#2 884082445#3 884082446#0 884082446#1 436048953 974064479#0 974064479#1 974064479#2 -59262032 -59262033 -23578870#3"/>
    </vehicle>
    <vehicle id="32" depart="64.00">
        <route edges="179260413 179260409#0 179260409#1 179260409#2 95282572#3 46151432#5 46151432#6 46151432#7 46151432#8 179260416 1031963663#0 1031963663#1 1031963663#2 1031963663#3 1031963663#4 1031963663#5 1031963663#6 1031963663#7 1031963663#8 1031963663#9 179260411#0 179260411#1 179260411#2 179260411#3 179260411#4 179260411#5 179260411#6 179260411#7 179260411#8 179260411#9 179260411#10 179260411#11 179260411#12 179260411#13 179260411#14 152413923#0"/>
    </vehicle>
    <vehicle id="33" depart="66.00">
        <route edges="1133614450#0 1133614450#1 1133614450#2 163198815#3 163198815#4 163198815#5 163198815#6 163198815#7 163198815#8 163198815#9 163198815#10 163198815#11 163198815#12 163198815#13 58704022#0 58704022#1 58704022#2 58704022#3 58704022#4 58704022#5 58704022#6 58704022#7 58704022#8 179260413 179260409#0 179260409#1 179260409#2 95282572#3 46151432#5 46151432#6 46151432#7 46151432#8 179260416 1031963663#0 1031963663#1 97671480#0"/>
    </vehicle>
    <vehicle id="34" depart="68.00">
        <route edges="97671396#0 97671396#1 97671396#2 -24061029#13 -24061029#12 -24061029#11 -24061029#10 -24061029#9 -24061029#8 -24061029#7 -24061029#6 -24061029#5 -24061029#4 -24061029#3 -24061029#2 -24061029#1 -24061029#0 179260411#0 179260411#1 179260411#2 179260411#3 179260411#4 179260411#5 179260411#6 179260411#7 179260411#8 179260411#9 179260411#10 179260411#11 179260411#12 179260411#13 179260411#14"/>
    </vehicle>
    <vehicle id="35" depart="70.00">
        <route edges="690085644#1 690085644#2 690601667#6 690601667#7 690601667#8 690601667#9 179260411#7 179260411#8 179260411#9 179260411#10 179260411#11 179260411#12 179260411#13 179260411#14 59262028 196380152#0 196380152#1 196380152#2 196380152#3 196380152#4 196380152#5 196380152#6 196380152#7 196380151 1105524769#0 1105524769#1 1105524769#2 1105524769#3 1105524769#4 884082445#0 884082445#1 884082445#2 884082445#3 884082446#0 884082446#1 286703470#0 286703470#1 286703470#2 286703470#3 958705067 958539575 -59262030#1 -59262030#0 286703474#0 286703474#1 286703474#2 286703474#3 286703474#4 389357542#0 389357542#1 389357542#2 389357542#3 389357542#4 257233098#0 257233098#1 257233098#2 257233098#3 257233098#4 257233098#5 257233098#6"/>
    </vehicle>
    <vehicle id="36" depart="72.00">
        <route edges="145405919#1 145405919#2 145405919#3 152413934#5 152413934#6 152413934#7 152413934#8 152413934#9 152413934#10 152413934#11 59266960#0 59266960#1 59266960#2 39520757#0 39520757#1 39520757#2 39520757#3 39520757#4 39520757#5 -1419992139#7 -1419992139#6 -1419992139#5 -1419992139#4 158180858#0 158180858#1 1419638519#0 1419638519#1 162782735#0 162782735#1 1419638517"/>
    </vehicle>
    <vehicle id="37" depart="74.00">
        <route edges="538982924#2 538982924#3 538982924#4 538982924#5 97671358#0 97671358#1 97671358#2 97671358#3 97671358#4 97671358#5 97671358#6 97671358#7 97671358#8 1245764633#4 1245764633#5 1245764633#6 1245764632#0 1245764632#1 1085022607#0 1085022607#1 1085022607#2 1085022607#3 1085022607#4 1085022606 1031976626#7 1085022609#0 1085022609#1 1085022603#0 1085022603#1 46151426#0 46151426#1 46151426#2 46151426#3 -24061029#16 -24061029#15 -24061029#14 97671426#0 97671426#1 97671426#2 97671426#3"/>
    </vehicle>
    <vehicle id="38" depart="76.00">
        <route edges="257357807#2 257357807#3 97671410#0 199152211#2 199152211#3 199152211#4 199152211#5 199152245 -273211078#10 -273211078#9 -273211078#8 -273211078#7 -273211078#6 -273211078#5 -273211078#4 -273211078#3 -273211078#2 -273211078#1 -273211078#0 -261674288 -261674289 -46151215#2 -46151215#1 -46151215#0 680760295 680760292#0 680760292#1 680760292#2 680760292#3 680760292#4 680760292#5 680760292#6 54786433#0 54786433#1 54786433#2 54786433#3 1085022602#0 1085022602#1 1085022610#0 1085022610#1 1245764631#0 1245764631#1 1245764631#2 1245764631#3 1245764631#4 1245989818#0 1245989818#1 92223199#0 92223199#1 92223199#2 92223199#3 1031976631 1031976629#0 1031976629#1 1031976629#2 1031976629#3 1031976629#4 1031976629#5 1031976629#6 1031976629#7 1031976629#8 1031976629#9 538982926#0 538982926#1 538982926#2 1177591509#0 1177591509#1 240388169#8 1177591510#0 1177591510#1 1177591510#2 1177591510#3 1177591510#4 1177591510#5 1177591510#6"/>
    </vehicle>
    <vehicle id="39" depart="78.00">