<?xml version="1.0" encoding="UTF-8"?>

<!-- generated on 2025-09-29 15:40:58.306158 by Eclipse SUMO randomTrips.py v1_24_0+1045-d7bbd3d1d18
<configuration>
    <net-file value="/Users/vinayakprakash/Documents/V2X-COMMUNICATION/src/simulation/sumo_data/map.net.xml"/>
    <output-trip-file value="/Users/vinayakprakash/Documents/V2X-COMMUNICATION/src/simulation/sumo_data/map.rou.xml"/>
    <end value="1000.0"/>
    <period value="2.0"/>
</configuration>
-->
<routes xmlns:xsi="http://www.w3.org/2001/XMLSchema-instance" xsi:noNamespaceSchemaLocation="http://sumo.dlr.de/xsd/routes_file.xsd">
    <trip id="0" depart="0.00" from="680782188#7" to="-178899417#7"/>
    <trip id="1" depart="2.00" from="157292833#13" to="1245764631#1"/>
    <trip id="2" depart="4.00" from="95274308#1" to="74314564#3"/>
    <trip id="3" depart="6.00" from="97671422#0" to="-660988514#3"/>
    <trip id="4" depart="8.00" from="273211078#5" to="-216895901#0"/>
    <trip id="5" depart="10.00" from="1177591510#6" to="39520757#2"/>
    <trip id="6" depart="12.00" from="-196380138#1" to="1105155924#0"/>
    <trip id="7" depart="14.00" from="689924124#0" to="46151426#9"/>
    <trip id="8" depart="16.00" from="1189280544#3" to="538982926#6"/>
    <trip id="9" depart="18.00" from="95396844#2" to="-1133614450#1"/>
    <trip id="10" depart="20.00" from="95396840#1" to="883261847#0"/>
    <trip id="11" depart="22.00" from="203035355" to="-97672292#1"/>
    <trip id="12" depart="24.00" from="97672291#0" to="198900392#7"/>
    <trip id="13" depart="26.00" from="-680782188#12" to="-680782188#26"/>
    <trip id="14" depart="28.00" from="97671363#1" to="59266960#2"/>
    <trip id="15" depart="30.00" from="95396843#2" to="932390018"/>
    <trip id="16" depart="32.00" from="240392370#5" to="46151432#7"/>
    <trip id="17" depart="34.00" from="97671338#1" to="667863956#0"/>
    <trip id="18" depart="36.00" from="97671386#5" to="492041982#2"/>
    <trip id="19" depart="38.00" from="884274229#0" to="-273211078#6"/>
    <trip id="20" depart="40.00" from="1245764637" to="163198807#0"/>
    <trip id="21" depart="42.00" from="-689924124#2" to="157292833#21"/>
    <trip id="22" depart="44.00" from="680782188#18" to="23815145#3"/>
    <trip id="23" depart="46.00" from="240392347#8" to="1105524769#2"/>
    <trip id="24" depart="48.00" from="147801989#2" to="97671474#1"/>
    <trip id="25" depart="50.00" from="689924123#2" to="611278105"/>
    <trip id="26" depart="52.00" from="1031976626#2" to="932390016#1"/>
    <trip id="27" depart="54.00" from="1031963656#10" to="240392370#0"/>
    <trip id="28" depart="56.00" from="97685747#7" to="680782189#2"/>
    <trip id="29" depart="58.00" from="46151739#1" to="856631371#18"/>
    <trip id="30" depart="60.00" from="97671355#1" to="95282551#0"/>
    <trip id="31" depart="62.00" from="1245764640#1" to="-23578870#3"/>
    <trip id="32" depart="64.00" from="179260413" to="152413923#0"/>
    <trip id="33" depart="66.00" from="1133614450#0" to="97671480#0"/>
    <trip id="34" depart="68.00" from="97671396#0" to="179260411#14"/>
    <trip id="35" depart="70.00" from="690085644#1" to="257233098#6"/>
    <trip id="36" depart="72.00" from="145405919#1" to="1419638517"/>
    <trip id="37" depart="74.00" from="538982924#2" to="97671426#3"/>
    <trip id="38" depart="76.00" from="257357807#2" to="1177591510#6"/>
    <trip id="39" depart="78.00" from="97685774#5" to="39521608#0"/>
    <trip id="40" depart="80.00" from="-680781433#2" to="-273211103#2"/>
    <trip id="41" depart="82.00" from="-74314564#5" to="676291217#3"/>
    <trip id="42" depart="84.00" from="95396756#1" to="273211078#1"/>
    <trip id="43" depart="86.00" from="-389357542#3" to="240595360#1"/>
    <trip id="44" depart="88.00" from="97685761#6" to="438405583#1"/>
    <trip id="45" depart="90.00" from="97685667#0" to="97671386#1"/>
    <trip id="46" depart="92.00" from="-1419637401#3" to="92223190#12"/>
    <trip id="47" depart="94.00" from="147801989#1" to="680782192#0"/>
    <trip id="48" depart="96.00" from="-883261849" to="274503992#4"/>
    <trip id="49" depart="98.00" from="319195387#0" to="97672287#4"/>
    <trip id="50" depart="100.00" from="97671395#8" to="145405917#2"/>
    <trip id="51" depart="102.00" from="39168852#1" to="1055855103#2"/>
    <trip id="52" depart="104.00" from="97671445#0" to="97671393#5"/>
    <trip id="53" depart="106.00" from="178899419#8" to="680782188#8"/>
    <trip id="54" depart="108.00" from="611278104#1" to="-97672287#3"/>
    <trip id="55" depart="110.00" from="95277526#13" to="459561639#0"/>
    <trip id="56" depart="112.00" from="95282554#7" to="441654722#0"/>
    <trip id="57" depart="114.00" from="-1031963656#1" to="196380139#0"/>
    <trip id="58" depart="116.00" from="-145405917#0" to="97671461#5"/>
    <trip id="59" depart="118.00" from="97671397#5" to="97671339#7"/>
    <trip id="60" depart="120.00" from="178989940#3" to="-33847142#1"/>
    <trip id="61" depart="122.00" from="97671397#2" to="97671486#0"/>
    <trip id="62" depart="124.00" from="-46151431#2" to="95277526#0"/>
    <trip id="63" depart="126.00" from="95277526#8" to="-95282561#1"/>
    <trip id="64" depart="128.00" from="342481201#7" to="46151431#8"/>
    <trip id="65" depart="130.00" from="145405919#2" to="97671394#7"/>
    <trip id="66" depart="132.00" from="273211091#0" to="1133614450#0"/>
    <trip id="67" depart="134.00" from="459561639#0" to="93713552#1"/>
    <trip id="68" depart="136.00" from="1105285851" to="179260409#0"/>
    <trip id="69" depart="138.00" from="97685761#2" to="689924124#11"/>
    <trip id="70" depart="140.00" from="27695604#7" to="40969573#7"/>
    <trip id="71" depart="142.00" from="-95274349#17" to="1245764633#0"/>
    <trip id="72" depart="144.00" from="199152223#2" to="538982926#2"/>
    <trip id="73" depart="146.00" from="1245764642" to="1189280544#0"/>
    <trip id="74" depart="148.00" from="-46151431#9" to="680781433#0"/>
    <trip id="75" depart="150.00" from="1245764640#1" to="97671430#6"/>
    <trip id="76" depart="152.00" from="97671381#5" to="-46151431#7"/>
    <trip id="77" depart="154.00" from="1316950553#0" to="69963039#2"/>
    <trip id="78" depart="156.00" from="1139284719#4" to="-95282572#9"/>
    <trip id="79" depart="158.00" from="97671473#2" to="478293894#6"/>
    <trip id="80" depart="160.00" from="342481201#14" to="95282572#10"/>
    <trip id="81" depart="162.00" from="95396843#4" to="1085022605#7"/>
    <trip id="82" depart="164.00" from="-680782188#3" to="273211156#10"/>
    <trip id="83" depart="166.00" from="273211091#10" to="342481197#3"/>
    <trip id="84" depart="168.00" from="932390016#0" to="74314548#0"/>
    <trip id="85" depart="170.00" from="97685733#2" to="-680782188#8"/>
    <trip id="86" depart="172.00" from="263802549#1" to="199152221"/>
    <trip id="87" depart="174.00" from="97671386#5" to="1419992137#1"/>
    <trip id="88" depart="176.00" from="1085022605#8" to="31046405#8"/>
    <trip id="89" depart="178.00" from="273211078#5" to="157292833#24"/>
    <trip id="90" depart="180.00" from="1419992139#12" to="97671455#2"/>
    <trip id="91" depart="182.00" from="286703492#4" to="97671386#3"/>
    <trip id="92" depart="184.00" from="46151432#0" to="-31046405#3"/>
    <trip id="93" depart="186.00" from="97685779#3" to="97671343#16"/>
    <trip id="94" depart="188.00" from="97685641#0" to="97671459#3"/>
    <trip id="95" depart="190.00" from="97671366#3" to="1031963662"/>
    <trip id="96" depart="192.00" from="257357819#3" to="-355240125#10"/>
    <trip id="97" depart="194.00" from="240392373#0" to="97685733#8"/>
    <trip id="98" depart="196.00" from="319195387#4" to="273211078#4"/>
    <trip id="99" depart="198.00" from="97672291#1" to="97685761#3"/>
    <trip id="100" depart="200.00" from="46151435#8" to="92219081#1"/>
    <trip id="101" depart="202.00" from="-97672292#3" to="178899418#2"/>
    <trip id="102" depart="204.00" from="97685639#2" to="517127276#0"/>
    <trip id="103" depart="206.00" from="46151426#0" to="95274349#9"/>
    <trip id="104" depart="208.00" from="-33847142#1" to="538982924#2"/>
    <trip id="105" depart="210.00" from="39169192#2" to="97671374#5"/>
    <trip id="106" depart="212.00" from="-97685741" to="97672294#6"/>
    <trip id="107" depart="214.00" from="-550689175#3" to="1085022601"/>
    <trip id="108" depart="216.00" from="550689175#2" to="74314550#4"/>
    <trip id="109" depart="218.00" from="1279121054#4" to="-95274339#1"/>
    <trip id="110" depart="220.00" from="97671418#6" to="1419638196#2"/>
    <trip id="111" depart="222.00" from="550689175#0" to="667863956#4"/>
    <trip id="112" depart="224.00" from="269150817#2" to="538982924#0"/>
    <trip id="113" depart="226.00" from="40969586#2" to="97671471#5"/>
    <trip id="114" depart="228.00" from="1105285859#1" to="92219075#3"/>
    <trip id="115" depart="230.00" from="1316950554#0" to="257233098#7"/>
    <trip id="116" depart="232.00" from="72465971#2" to="178899421#0"/>
    <trip id="117" depart="234.00" from="187643897#0" to="95274385#15"/>
    <trip id="118" depart="236.00" from="-46151739#13" to="319195388#5"/>
    <trip id="119" depart="238.00" from="97685779#0" to="97685761#6"/>
    <trip id="120" depart="240.00" from="-46151739#16" to="1139284715#1"/>
    <trip id="121" depart="242.00" from="145405919#3" to="97671470#1"/>
    <trip id="122" depart="244.00" from="97671401#0" to="97671397#7"/>
    <trip id="123" depart="246.00" from="240392347#5" to="-97685672#1"/>
    <trip id="124" depart="248.00" from="97671342#4" to="884082446#0"/>
    <trip id="125" depart="250.00" from="647087544#1" to="97685742#6"/>
    <trip id="126" depart="252.00" from="689930747#3" to="-1181162212"/>
    <trip id="127" depart="254.00" from="968060907#1" to="178899419#7"/>
    <trip id="128" depart="256.00" from="690601672#3" to="97671476#0"/>
    <trip id="129" depart="258.00" from="-968060907#0" to="-92223190#3"/>
    <trip id="130" depart="260.00" from="-72465971#6" to="46151435#11"/>
    <trip id="131" depart="262.00" from="92219075#6" to="1105285858#3"/>
    <trip id="132" depart="264.00" from="680782188#12" to="145405917#5"/>
    <trip id="133" depart="266.00" from="378284518#1" to="97671430#6"/>
    <trip id="134" depart="268.00" from="97671358#5" to="-680782188#1"/>
    <trip id="135" depart="270.00" from="273211091#10" to="157292833#17"/>
    <trip id="136" depart="272.00" from="-1070720646#0" to="95282531#0"/>
    <trip id="137" depart="274.00" from="680782188#23" to="145405913#6"/>
    <trip id="138" depart="276.00" from="95274326#7" to="46151432#5"/>
    <trip id="139" depart="278.00" from="273211103#2" to="-1419637163#1"/>
    <trip id="140" depart="280.00" from="-46151739#7" to="97671403#1"/>
    <trip id="141" depart="282.00" from="97671430#1" to="46151427#2"/>
    <trip id="142" depart="284.00" from="97671343#10" to="538982923#0"/>
    <trip id="143" depart="286.00" from="-97671473#3" to="-95274398#9"/>
    <trip id="144" depart="288.00" from="178989940#6" to="97671426#8"/>
    <trip id="145" depart="290.00" from="95396768#4" to="97671386#0"/>
    <trip id="146" depart="292.00" from="97671426#8" to="1105524769#4"/>
    <trip id="147" depart="294.00" from="1419992139#11" to="-689924124#8"/>
    <trip id="148" depart="296.00" from="95282561#1" to="97671410#0"/>
    <trip id="149" depart="298.00" from="264298077#6" to="667863957#1"/>
    <trip id="150" depart="300.00" from="-97672292#2" to="97671461#8"/>
    <trip id="151" depart="302.00" from="97671387#4" to="97685693#3"/>
    <trip id="152" depart="304.00" from="95396844#8" to="97671401#2"/>
    <trip id="153" depart="306.00" from="-178899417#6" to="95274308#5"/>
    <trip id="154" depart="308.00" from="198900384#6" to="97671464#2"/>
    <trip id="155" depart="310.00" from="95396825#6" to="97671387#14"/>
    <trip id="156" depart="312.00" from="95396844#8" to="147801989#0"/>
    <trip id="157" depart="314.00" from="95282572#8" to="-734696705#1"/>
    <trip id="158" depart="316.00" from="97671394#7" to="97671381#0"/>
    <trip id="159" depart="318.00" from="1245764631#0" to="968060906#2"/>
    <trip id="160" depart="320.00" from="335539639#2" to="178988162#10"/>
    <trip id="161" depart="322.00" from="95396768#1" to="1245764636#2"/>
    <trip id="162" depart="324.00" from="-178899417#2" to="1085022609#1"/>
    <trip id="163" depart="326.00" from="196380152#5" to="97671387#3"/>
    <trip id="164" depart="328.00" from="97685630#0" to="157292833#26"/>
    <trip id="165" depart="330.00" from="680782189#5" to="257357805#0"/>
    <trip id="166" depart="332.00" from="97685712#3" to="44805845"/>
    <trip id="167" depart="334.00" from="97671476#1" to="-92223190#2"/>
    <trip id="168" depart="336.00" from="97685641#5" to="1055855103#1"/>
    <trip id="169" depart="338.00" from="97685610#4" to="145405919#2"/>
    <trip id="170" depart="340.00" from="-74314564#0" to="274503992#3"/>
    <trip id="171" depart="342.00" from="92223213#8" to="179260411#10"/>
    <trip id="172" depart="344.00" from="60659451#0" to="39629431#2"/>
    <trip id="173" depart="346.00" from="1422762652#3" to="893375979"/>
    <trip id="174" depart="348.00" from="-1031963656#5" to="97671459#0"/>
    <trip id="175" depart="350.00" from="95274339#1" to="72465971#0"/>
    <trip id="176" depart="352.00" from="240388168#0" to="-46151431#3"/>
    <trip id="177" depart="354.00" from="690601675#0" to="196380152#6"/>
    <trip id="178" depart="356.00" from="179260411#4" to="97671366#0"/>
    <trip id="179" depart="358.00" from="92223188" to="178899421#1"/>
    <trip id="180" depart="360.00" from="178989944#2" to="264298077#8"/>
    <trip id="181" depart="362.00" from="263802549#1" to="178899417#7"/>
    <trip id="182" depart="364.00" from="-95282561#1" to="269150817#1"/>
    <trip id="183" depart="366.00" from="97671476#5" to="74314564#5"/>
    <trip id="184" depart="368.00" from="97671428#3" to="667863952#2"/>
    <trip id="185" depart="370.00" from="178988161#11" to="46151431#11"/>
    <trip id="186" depart="372.00" from="-1031963656#0" to="158180858#0"/>
    <trip id="187" depart="374.00" from="273211156#10" to="525276670"/>
    <trip id="188" depart="376.00" from="286703492#0" to="1139284718"/>
    <trip id="189" depart="378.00" from="342481201#16" to="97671427#6"/>
    <trip id="190" depart="380.00" from="95396768#4" to="1031963665#0"/>
    <trip id="191" depart="382.00" from="-60659454#4" to="40969570#1"/>
    <trip id="192" depart="384.00" from="680781433#5" to="198900392#1"/>
    <trip id="193" depart="386.00" from="968060910#0" to="95274385#12"/>
    <trip id="194" depart="388.00" from="734696705#0" to="1245764633#0"/>
    <trip id="195" depart="390.00" from="1105155925#2" to="-178899417#5"/>
    <trip id="196" depart="392.00" from="1419637980#1" to="342481201#6"/>
    <trip id="197" depart="394.00" from="97671366#7" to="-46151739#13"/>
    <trip id="198" depart="396.00" from="269039967" to="680760292#6"/>
    <trip id="199" depart="398.00" from="1085022611#5" to="857738561#2"/>
    <trip id="200" depart="400.00" from="387312972#2" to="1419637401#1"/>
    <trip id="201" depart="402.00" from="690198415" to="-1105285859#2"/>
    <trip id="202" depart="404.00" from="95274372#6" to="95282527#2"/>
    <trip id="203" depart="406.00" from="-72465971#4" to="273211091#11"/>
    <trip id="204" depart="408.00" from="1031976632#0" to="97672292#1"/>
    <trip id="205" depart="410.00" from="40969573#7" to="-31046405#2"/>
    <trip id="206" depart="412.00" from="1419992139#10" to="97671366#1"/>
    <trip id="207" depart="414.00" from="319195388#0" to="95396825#4"/>
    <trip id="208" depart="416.00" from="696377215#0" to="97685747#0"/>
    <trip id="209" depart="418.00" from="550689175#3" to="97672283#0"/>
    <trip id="210" depart="420.00" from="97671419#2" to="657586282"/>
    <trip id="211" depart="422.00" from="92223186" to="39520757#1"/>
    <trip id="212" depart="424.00" from="97671339#3" to="46151431#10"/>
    <trip id="213" depart="426.00" from="97671426#1" to="95274349#10"/>
    <trip id="214" depart="428.00" from="342481201#4" to="1422762653#9"/>
    <trip id="215" depart="430.00" from="1419638700#0" to="680782188#28"/>
    <trip id="216" depart="432.00" from="95277526#8" to="40969585#4"/>
    <trip id="217" depart="434.00" from="676291215" to="157292833#0"/>
    <trip id="218" depart="436.00" from="-492041982#3" to="157296623#3"/>
    <trip id="219" depart="438.00" from="152413934#7" to="196380131#2"/>
    <trip id="220" depart="440.00" from="459561640#2" to="-968060910#6"/>
    <trip id="221" depart="442.00" from="1245989819#1" to="856631371#53"/>
    <trip id="222" depart="444.00" from="884274229#7" to="-389357542#3"/>
    <trip id="223" depart="446.00" from="265068932#1" to="46151426#1"/>
    <trip id="224" depart="448.00" from="269150811#5" to="1105290311#1"/>
    <trip id="225" depart="450.00" from="269150830" to="97671430#4"/>
    <trip id="226" depart="452.00" from="538982924#0" to="856631371#9"/>
    <trip id="227" depart="454.00" from="97671376#7" to="95277528#0"/>
    <trip id="228" depart="456.00" from="240595360#2" to="-1105285859#3"/>
    <trip id="229" depart="458.00" from="21957625#3" to="95274385#4"/>
    <trip id="230" depart="460.00" from="97671376#1" to="97672287#3"/>
    <trip id="231" depart="462.00" from="269150817#1" to="95274349#7"/>
    <trip id="232" depart="464.00" from="46151427#5" to="59266960#0"/>
    <trip id="233" depart="466.00" from="1189280544#4" to="1177591510#6"/>
    <trip id="234" depart="468.00" from="27695604#13" to="-205411851#1"/>
    <trip id="235" depart="470.00" from="199152211#2" to="751045577#3"/>
    <trip id="236" depart="472.00" from="264298077#10" to="1031963656#6"/>
    <trip id="237" depart="474.00" from="342481198#0" to="-95274400"/>
    <trip id="238" depart="476.00" from="667863959#1" to="-196380138#2"/>
    <trip id="239" depart="478.00" from="257233098#6" to="46869642#8"/>
    <trip id="240" depart="480.00" from="-196380138#3" to="680788592#14"/>
    <trip id="241" depart="482.00" from="-968060910#0" to="335539639#6"/>
    <trip id="242" depart="484.00" from="-31046405#4" to="240392355#9"/>
    <trip id="243" depart="486.00" from="1133614450#2" to="196380148#2"/>
    <trip id="244" depart="488.00" from="95277526#0" to="240392355#9"/>
    <trip id="245" depart="490.00" from="95274385#11" to="97671339#8"/>
    <trip id="246" depart="492.00" from="1419992140" to="-59262032"/>
    <trip id="247" depart="494.00" from="-145405917#0" to="459561639#0"/>
    <trip id="248" depart="496.00" from="98247389#1" to="207093731#12"/>
    <trip id="249" depart="498.00" from="689924124#1" to="95282564#2"/>
    <trip id="250" depart="500.00" from="689924124#3" to="95274385#7"/>
    <trip id="251" depart="502.00" from="97672282#0" to="1105155925#0"/>
    <trip id="252" depart="504.00" from="-145405917#4" to="-97672287#2"/>
    <trip id="253" depart="506.00" from="-95274398#8" to="69963039#4"/>
    <trip id="254" depart="508.00" from="46869642#6" to="1177591510#0"/>
    <trip id="255" depart="510.00" from="883261847#2" to="95277528#6"/>
    <trip id="256" depart="512.00" from="1031963663#8" to="60659454#1"/>
    <trip id="257" depart="514.00" from="95274349#6" to="-92223190#10"/>
    <trip id="258" depart="516.00" from="968060910#2" to="97685621#3"/>
    <trip id="259" depart="518.00" from="-734897654" to="-187797932#0"/>
    <trip id="260" depart="520.00" from="179260411#1" to="74314564#6"/>
    <trip id="261" depart="522.00" from="97672292#1" to="257233099#0"/>
    <trip id="262" depart="524.00" from="922026090#4" to="-46151739#9"/>
    <trip id="263" depart="526.00" from="856631371#38" to="676291217#2"/>
    <trip id="264" depart="528.00" from="-689924124#5" to="95282531#5"/>
    <trip id="265" depart="530.00" from="97671366#9" to="58704022#2"/>
    <trip id="266" depart="532.00" from="-95274349#17" to="97685733#2"/>
    <trip id="267" depart="534.00" from="95282570#3" to="203572463#0"/>
    <trip id="268" depart="536.00" from="273211116" to="240392347#1"/>
    <trip id="269" depart="538.00" from="39520757#2" to="203035354#1"/>
    <trip id="270" depart="540.00" from="97671366#6" to="974064479#1"/>
    <trip id="271" depart="542.00" from="-72465971#0" to="97672294#6"/>
    <trip id="272" depart="544.00" from="680782188#18" to="97671337#2"/>
    <trip id="273" depart="546.00" from="888047783#3" to="27695602"/>
    <trip id="274" depart="548.00" from="94094870#0" to="97685621#6"/>
    <trip id="275" depart="550.00" from="152413934#10" to="95396843#7"/>
    <trip id="276" depart="552.00" from="44805859" to="378284476"/>
    <trip id="277" depart="554.00" from="27695604#12" to="94094819#0"/>
    <trip id="278" depart="556.00" from="152413923#4" to="97671374#1"/>
    <trip id="279" depart="558.00" from="97671339#3" to="-660988514#1"/>
    <trip id="280" depart="560.00" from="97671402#0" to="1419637401#1"/>
    <trip id="281" depart="562.00" from="342448077#2" to="631239774"/>
    <trip id="282" depart="564.00" from="240392373#0" to="-205411851#0"/>
    <trip id="283" depart="566.00" from="97671368#2" to="1069975920#2"/>
    <trip id="284" depart="568.00" from="1139252860#1" to="95396785#6"/>
    <trip id="285" depart="570.00" from="203035356" to="97671400#0"/>
    <trip id="286" depart="572.00" from="883261850#0" to="157292833#15"/>
    <trip id="287" depart="574.00" from="-1419637163#3" to="97672281#1"/>
    <trip id="288" depart="576.00" from="-652152435" to="92223190#1"/>
    <trip id="289" depart="578.00" from="378284518#2" to="95274398#9"/>
    <trip id="290" depart="580.00" from="387312965#1" to="95396765#3"/>
    <trip id="291" depart="582.00" from="-680782188#13" to="1189280544#5"/>
    <trip id="292" depart="584.00" from="856631371#42" to="178988162#3"/>
    <trip id="293" depart="586.00" from="525291476#2" to="342481201#17"/>
    <trip id="294" depart="588.00" from="44492914#0" to="273211091#12"/>
    <trip id="295" depart="590.00" from="95274349#17" to="196380156#1"/>
    <trip id="296" depart="592.00" from="884082444#0" to="152413934#2"/>
    <trip id="297" depart="594.00" from="1419992139#6" to="-95274349#11"/>
    <trip id="298" depart="596.00" from="1085022609#1" to="-95274339#0"/>
    <trip id="299" depart="598.00" from="1070720653#7" to="1143901792#2"/>
    <trip id="300" depart="600.00" from="97685693#3" to="40969591#10"/>
    <trip id="301" depart="602.00" from="157296589#0" to="-689924124#10"/>
    <trip id="302" depart="604.00" from="1085022611#4" to="1245764636#2"/>
    <trip id="303" depart="606.00" from="1065038797#2" to="-1419992139#14"/>
    <trip id="304" depart="608.00" from="445409145#1" to="157292816"/>
    <trip id="305" depart="610.00" from="97685672#2" to="46151435#11"/>
    <trip id="306" depart="612.00" from="857738561#5" to="-95274398#4"/>
    <trip id="307" depart="614.00" from="97671392#1" to="387312965#2"/>
    <trip id="308" depart="616.00" from="342481198#7" to="286703470#3"/>
    <trip id="309" depart="618.00" from="1070720653#4" to="-31046405#7"/>
    <trip id="310" depart="620.00" from="97671476#8" to="355240125#3"/>
    <trip id="311" depart="622.00" from="974064479#0" to="257357807#0"/>
    <trip id="312" depart="624.00" from="-46151739#2" to="680760292#5"/>
    <trip id="313" depart="626.00" from="-31047273#5" to="-97671473#3"/>
    <trip id="314" depart="628.00" from="46869642#1" to="178988161#7"/>
    <trip id="315" depart="630.00" from="97685757#3" to="-94094819#4"/>
    <trip id="316" depart="632.00" from="95277526#3" to="60659451#0"/>
    <trip id="317" depart="634.00" from="95282589#4" to="1245764633#4"/>
    <trip id="318" depart="636.00" from="40969586#1" to="31047273#11"/>
    <trip id="319" depart="638.00" from="286703492#3" to="97671385#1"/>
    <trip id="320" depart="640.00" from="97685749#0" to="178988162#11"/>
    <trip id="321" depart="642.00" from="667863957#1" to="631239772#1"/>
    <trip id="322" depart="644.00" from="95274326#2" to="97671486#3"/>
    <trip id="323" depart="646.00" from="1105290311#7" to="1113105796#0"/>
    <trip id="324" depart="648.00" from="690601667#3" to="-97685639#2"/>
    <trip id="325" depart="650.00" from="1031976629#3" to="-46151739#5"/>
    <trip id="326" depart="652.00" from="-1031963656#9" to="31047273#11"/>
    <trip id="327" depart="654.00" from="1245989820#0" to="893375978#1"/>
    <trip id="328" depart="656.00" from="856631371#26" to="97671455#5"/>
    <trip id="329" depart="658.00" from="95282572#9" to="669790924#1"/>
    <trip id="330" depart="660.00" from="690601667#6" to="97671471#1"/>
    <trip id="331" depart="662.00" from="273211091#17" to="46151426#8"/>
    <trip id="332" depart="664.00" from="689924123#0" to="97671435#2"/>
    <trip id="333" depart="666.00" from="97671336#4" to="-46151431#9"/>
    <trip id="334" depart="668.00" from="1031963663#0" to="178988162#8"/>
    <trip id="335" depart="670.00" from="95274361#0" to="478293893#3"/>
    <trip id="336" depart="672.00" from="163198807#1" to="-95274349#7"/>
    <trip id="337" depart="674.00" from="856631371#30" to="883261848#0"/>
    <trip id="338" depart="676.00" from="97671479" to="39168852#2"/>
    <trip id="339" depart="678.00" from="387312972#0" to="-550689175#3"/>
    <trip id="340" depart="680.00" from="196380138#6" to="1419992139#13"/>
    <trip id="341" depart="682.00" from="-680781433#4" to="97685610#2"/>
    <trip id="342" depart="684.00" from="97672283#3" to="98247389#0"/>
    <trip id="343" depart="686.00" from="72465971#4" to="152413923#7"/>
    <trip id="344" depart="688.00" from="-257233098#5" to="95274398#1"/>
    <trip id="345" depart="690.00" from="342481199#2" to="689924124#5"/>
    <trip id="346" depart="692.00" from="97671451#0" to="1069975920#0"/>
    <trip id="347" depart="694.00" from="538982924#5" to="680782188#17"/>
    <trip id="348" depart="696.00" from="387312965#5" to="-680781433#3"/>
    <trip id="349" depart="698.00" from="207093731#11" to="198900384#3"/>
    <trip id="350" depart="700.00" from="69963039#2" to="97671380#0"/>
    <trip id="351" depart="702.00" from="198900384#0" to="856631371#52"/>
    <trip id="352" depart="704.00" from="958539574#0" to="46151431#9"/>
    <trip id="353" depart="706.00" from="319195387#3" to="179260411#13"/>
    <trip id="354" depart="708.00" from="196380139#3" to="97685664#0"/>
    <trip id="355" depart="710.00" from="264298077#1" to="40969565#3"/>
    <trip id="356" depart="712.00" from="97685747#1" to="690601666"/>
    <trip id="357" depart="714.00" from="46151426#10" to="265176187#4"/>
    <trip id="358" depart="716.00" from="1085022605#11" to="23704115#2"/>
    <trip id="359" depart="718.00" from="95274397#3" to="669790924#2"/>
    <trip id="360" depart="720.00" from="95274406#3" to="1105285858#3"/>
    <trip id="361" depart="722.00" from="46151431#6" to="97671461#0"/>
    <trip id="362" depart="724.00" from="27695604#7" to="883261847#0"/>
    <trip id="363" depart="726.00" from="-95274349#18" to="97685667#9"/>
    <trip id="364" depart="728.00" from="611278104#1" to="1316950554#0"/>
    <trip id="365" depart="730.00" from="1026056857#1" to="46151432#2"/>
    <trip id="366" depart="732.00" from="46151432#8" to="-680782188#13"/>
    <trip id="367" depart="734.00" from="97685751#1" to="97671445#1"/>
    <trip id="368" depart="736.00" from="335539651#0" to="-94094819#0"/>
    <trip id="369" depart="738.00" from="97671339#9" to="389357542#1"/>
    <trip id="370" depart="740.00" from="92219075#2" to="39521349#4"/>
    <trip id="371" depart="742.00" from="157292793" to="97671343#10"/>
    <trip id="372" depart="744.00" from="97685711#9" to="1419637401#0"/>
    <trip id="373" depart="746.00" from="46151432#4" to="24061029#1"/>
    <trip id="374" depart="748.00" from="97671455#0" to="39521349#2"/>
    <trip id="375" depart="750.00" from="97671397#8" to="97671387#14"/>
    <trip id="376" depart="752.00" from="157292833#18" to="95282589#3"/>
    <trip id="377" depart="754.00" from="269150811#1" to="97671471#3"/>
    <trip id="378" depart="756.00" from="39521243#0" to="968060910#7"/>
    <trip id="379" depart="758.00" from="157296589#0" to="178899419#4"/>
    <trip id="380" depart="760.00" from="538982925#3" to="97685779#2"/>
    <trip id="381" depart="762.00" from="378284521#0" to="-97671473#1"/>
    <trip id="382" depart="764.00" from="46151432#7" to="46151426#3"/>
    <trip id="383" depart="766.00" from="319195387#5" to="196380136#3"/>
    <trip id="384" depart="768.00" from="1085022605#2" to="857738564#2"/>
    <trip id="385" depart="770.00" from="4848926" to="1245989823"/>
    <trip id="386" depart="772.00" from="95282537#1" to="-265176189#1"/>
    <trip id="387" depart="774.00" from="95274349#12" to="884274229#5"/>
    <trip id="388" depart="776.00" from="95396847" to="24061029#4"/>
    <trip id="389" depart="778.00" from="690601673#0" to="968060910#8"/>
    <trip id="390" depart="780.00" from="97685712#1" to="387312973#1"/>
    <trip id="391" depart="782.00" from="-245069170#1" to="39169192#2"/>
    <trip id="392" depart="784.00" from="538982926#7" to="97671393#2"/>
    <trip id="393" depart="786.00" from="97671395#13" to="286703470#2"/>
    <trip id="394" depart="788.00" from="40969591#6" to="319195388#0"/>
    <trip id="395" depart="790.00" from="92223190#7" to="265068939#1"/>
    <trip id="396" depart="792.00" from="689960017#2" to="-97672291#0"/>
    <trip id="397" depart="794.00" from="342481198#8" to="97685641#2"/>
    <trip id="398" depart="796.00" from="199311812" to="856631371#49"/>
    <trip id="399" depart="798.00" from="689924123#9" to="97671374#1"/>
    <trip id="400" depart="800.00" from="97671374#4" to="97671381#4"/>
    <trip id="401" depart="802.00" from="240595360#1" to="179260411#9"/>
    <trip id="402" depart="804.00" from="92219081#0" to="95274406#3"/>
    <trip id="403" depart="806.00" from="97671394#8" to="-24061029#5"/>
    <trip id="404" depart="808.00" from="-46151431#1" to="680781433#0"/>
    <trip id="405" depart="810.00" from="97671454#3" to="97685774#5"/>
    <trip id="406" depart="812.00" from="95274349#2" to="274503992#1"/>